Version 4.1
SHEET 1 1404 680
WIRE 176 -80 160 -80
WIRE 208 -80 176 -80
WIRE 352 -80 320 -80
WIRE 384 -80 352 -80
WIRE 320 -64 320 -80
WIRE 528 -64 496 -64
WIRE 208 -48 128 -48
WIRE 272 -16 272 -32
WIRE 272 -16 48 -16
WIRE 352 0 352 -80
WIRE 352 0 224 0
WIRE 800 0 800 -32
WIRE 448 16 448 -32
WIRE 272 32 112 32
WIRE 384 32 384 -48
WIRE 384 32 272 32
WIRE 272 128 272 32
WIRE 224 176 224 0
WIRE 272 176 224 176
WIRE 416 192 416 144
WIRE 496 192 416 192
WIRE 800 208 656 208
WIRE 496 224 416 224
WIRE 352 256 96 256
WIRE 208 320 208 -48
WIRE 272 320 208 320
WIRE 576 320 576 272
WIRE 416 336 416 224
WIRE 176 368 176 -80
WIRE 272 368 176 368
WIRE 96 448 96 256
WIRE 352 512 352 416
FLAG 160 -80 A
FLAG 128 -48 B
FLAG 112 32 Cin
FLAG 576 144 Vdd
FLAG 352 64 Vdd
FLAG 448 -96 Vdd
FLAG 272 -96 Vdd
FLAG 528 -64 Sum
FLAG 96 448 Vdd
FLAG 800 208 Cout
FLAG 448 16 0
FLAG 576 320 0
FLAG 352 512 0
FLAG 352 224 0
FLAG 48 -16 0
FLAG 800 0 0
FLAG 800 -112 Vdd
SYMBOL CMOS_AND 240 160 R0
SYMATTR InstName X1
SYMBOL CMOS_AND 240 352 R0
SYMATTR InstName X2
SYMBOL CMOS_OR 608 208 R0
SYMATTR InstName X3
SYMBOL CMOS_XOR 400 -48 R0
SYMATTR InstName X4
SYMBOL CMOS_XOR 224 -48 R0
SYMATTR InstName X5
SYMBOL voltage 800 -128 R0
SYMATTR InstName Vdd
SYMATTR Value 1.8
