Version 4.1
SHEET 1 1048 896
WIRE 128 80 80 80
WIRE 320 96 272 96
WIRE 128 128 80 128
WIRE 208 208 208 176
FLAG 400 -32 0
FLAG 208 208 0
FLAG 528 -32 0
FLAG 80 80 A
FLAG 320 96 out
FLAG 400 -112 Vdd
FLAG 208 16 Vdd
FLAG 528 -112 A
FLAG 80 128 B
FLAG 528 -208 0
FLAG 528 -288 B
SYMBOL voltage 400 -128 R0
SYMATTR InstName Vdd
SYMATTR Value 1.8
SYMBOL voltage 528 -128 R0
SYMATTR InstName V2
SYMATTR Value PULSE(0 1.8 0 .3n .3n 3n 6.6n 5)
SYMBOL CMOS_AND 96 112 R0
SYMATTR InstName X1
SYMBOL voltage 528 -304 R0
SYMATTR InstName V1
SYMATTR Value PULSE(0 1.8 0 .3n .3n 3n 6.6n 5)
TEXT 496 72 Left 2 !.include sim.meas
TEXT 496 32 Left 2 !.tran 15n
