A - PWL(0 1.8 100n 1.8 101n 1.8 200n 1.8 201n 0 300n 0 301n 1.8 400n 1.8)

B - PWL(0 0 100n 0 101n 1.8 200n 1.8 201n 1.8 300n 1.8 301n 1.8 400n 1.8)

.tran 0 500n 0 1n

.include "tsmc18dN.m"

.include "tsmc18dP.m"